/*--------------------------------*- C++ -*----------------------------------*\
| =========                 |                                                 |
| \\      /  F ield         | OpenFOAM: The Open Source CFD Toolbox           |
|  \\    /   O peration     | Version:  plus                                  |
|   \\  /    A nd           | Web:      www.OpenFOAM.com                      |
|    \\/     M anipulation  |                                                 |
\*---------------------------------------------------------------------------*/
FoamFile
{
    version     2.0;
    format      ascii;
    class       dictionary;
    object      blockMeshDict;
}
// * * * * * * * * * * * * * * * * * * * * * * * * * * * * * * * * * * * * * //

convertToMeters 1;

//- Number of cells along x direction
nx 64;

//- Number of cells along y direction = nx

//- Number of cells along z direction = nx

vertices        
(
    (-1 -1 -1)
    (1 -1 -1)
    (1 1 -1)
    (-1 1 -1)
    (-1 -1 1)
    (1 -1 1)
    (1 1 1)
    (-1 1 1)
);

blocks          
(
    hex (0 1 2 3 4 5 6 7) ($nx $nx $nx) simpleGrading (1 1 1)
);

edges           
(
);

boundary
(
    xMin
    {
      type cyclic;
      neighbourPatch xMax;
      faces
        (
	 (0 4 7 3)
	 );
    }
    xMax
    {
      type cyclic;
      neighbourPatch xMin;
      faces
        (
	 (2 6 5 1)
	 );
    }
    yMin
    {
      type cyclic;
      neighbourPatch yMax;
      faces
        (
	 (1 5 4 0)
	 );
    }
    yMax
    {
      type cyclic;
      neighbourPatch yMin;
      faces
        (
	 (3 7 6 2)
	 );
    }
    zMin
    {
      type cyclic;
      neighbourPatch zMax;
      faces
        (
	 (0 3 2 1)
	 );
    }
    zMax
    {
      type cyclic;
      neighbourPatch zMin;
      faces
        (
	 (4 5 6 7)
	 );
    }
);

mergePatchPairs 
(
);

// ************************************************************************* //
