/*--------------------------------*- C++ -*----------------------------------*\
| =========                 |                                                 |
| \\      /  F ield         | OpenFOAM: The Open Source CFD Toolbox           |
|  \\    /   O peration     | Version:  v2006                                 |
|   \\  /    A nd           | Website:  www.openfoam.com                      |
|    \\/     M anipulation  |                                                 |
\*---------------------------------------------------------------------------*/
FoamFile
{
    version     2.0;
    format      ascii;
    class       polyBoundaryMesh;
    location    "constant/polyMesh";
    object      boundary;
}
// * * * * * * * * * * * * * * * * * * * * * * * * * * * * * * * * * * * * * //

6
(
    waterWall
    {
        type            wall;
        inGroups        1(wall);
        nFaces          100;
        startFace       59600;
    }
    topWall
    {
        type            wall;
        inGroups        1(wall);
        nFaces          100;
        startFace       59700;
    }
    sides1
    {
        type            empty;
        inGroups        1(empty);
        nFaces          30000;
        startFace       59800;
    }
    sides2
    {
        type            empty;
        inGroups        1(empty);
        nFaces          30000;
        startFace       89800;
    }
    inout1
    {
        type            cyclic;
        inGroups        1(cyclic);
        nFaces          300;
        startFace       119800;
        matchTolerance  0.0001;
        transform       unknown;
        neighbourPatch  inout2;
    }
    inout2
    {
        type            cyclic;
        inGroups        1(cyclic);
        nFaces          300;
        startFace       120100;
        matchTolerance  0.0001;
        transform       unknown;
        neighbourPatch  inout1;
    }
)

// ************************************************************************* //
