/*--------------------------------*- C++ -*----------------------------------*\
| =========                 |                                                 |
| \\      /  F ield         | OpenFOAM: The Open Source CFD Toolbox           |
|  \\    /   O peration     | Version:  v2006                                 |
|   \\  /    A nd           | Website:  www.openfoam.com                      |
|    \\/     M anipulation  |                                                 |
\*---------------------------------------------------------------------------*/
FoamFile
{
    version     2.0;
    format      ascii;
    class       dictionary;
    location    "system";
    object      setAlphaFieldDict;
}
// * * * * * * * * * * * * * * * * * * * * * * * * * * * * * * * * * * * * * //

field           "alpha1";

type            randomWaveField;

amplitude       1;

waterLevel      0;

interfaceTol    1e-08;

nRows           3;

height          0.125;

N               32;

waveNumber     (1.63482 0 0);

A              nonuniform List<scalar>
32
(
 0.056842221161963
 0.017959530712861
 0.0051100549295947
 0.0015164421771204
 0.00048164752082798
 0.00016217137054844
 5.7022975006423e-05
 2.0696590450325e-05
 7.6936910485558e-06
 2.9141067518137e-06
 1.1205576149056e-06
 4.3629268053975e-07
 1.7165865355207e-07
 6.8143281829192e-08
 2.725951480897e-08
 1.0977844655681e-08
 4.4470339242241e-09
 1.8108537943015e-09
 7.4082161950551e-10
 3.0433564551449e-10
 1.254945498587e-10
 5.1925227242143e-11
 2.1551669296926e-11
 8.9705288655632e-12
 3.7436109174099e-12
 1.5660867863129e-12
 6.566900331535e-13
 2.7612214188718e-13
 1.1678227572454e-13
 5.0532168679121e-14
 2.4387455499688e-14
 1.7502477336955e-14
 );


// ************************************************************************* //
