/*--------------------------------*- C++ -*----------------------------------*\
| =========                 |                                                 |
| \\      /  F ield         | OpenFOAM: The Open Source CFD Toolbox           |
|  \\    /   O peration     | Version:  v2006                                 |
|   \\  /    A nd           | Website:  www.openfoam.com                      |
|    \\/     M anipulation  |                                                 |
\*---------------------------------------------------------------------------*/
FoamFile
{
    version	2.0;
    format	ascii;
    class	dictionary;
    object	waveProperties;
}
// * * * * * * * * * * * * * * * * * * * * * * * * * * * * * * * * * * * * * //

seaLevel            0;

relaxationNames     ( );

initializationName  init;

initCoeffs
{
    waveType            streamFunction;
    N                   32;
    Tsoft               0;
    depth               1;
    phi                 0;
    height              0.08;

    specifyPeriod       false;
    period              0.77542418660115;
    waveLength          1;

    specifyEuler        true;
    eulerVelocity       0;

    omega               8.1029008583291;
    waveNumber          (6.28319 0 0);
    uBar                1.2896206465714;
    A                   nonuniform List<scalar>
    32
    (
        0.038841416541597
        0.0052226178103798
        0.0010786129338759
        0.00026668141501371
        7.2813172926491e-05
        2.1169501479344e-05
        6.4272925058768e-06
        2.014199793417e-06
        6.4664286771528e-07
        2.1158838106121e-07
        7.0306325290179e-08
        2.3659478704289e-08
        8.0469952364961e-09
        2.7617977492325e-09
        9.5529022677971e-10
        3.3267655442538e-10
        1.1654541721641e-10
        4.1044596773295e-11
        1.4522845879243e-11
        5.1601017954256e-12
        1.8400685002363e-12
        6.5792853630083e-13
        2.353358723833e-13
        8.3612146059565e-14
        2.886193159844e-14
        9.012110090575e-15
        1.8939742392002e-15
        -4.3373668470952e-16
        -8.8459047076405e-16
        -6.2589544482978e-16
        -2.4516686587545e-16
        -7.8409374855766e-17
    );
    B                   nonuniform List<scalar>
    32
    (
        0.30189985724055
        0.0050775634483498
        0.0004448128510986
        4.0999313112688e-05
        3.8577974096582e-06
        3.7249993080421e-07
        3.6757943245219e-08
        3.6903725144894e-09
        3.7533572424993e-10
        3.8586533332142e-11
        4.0128507732535e-12
        4.2670725646168e-13
        4.8847557340331e-14
        6.8002514256894e-15
        1.5634031026168e-15
        5.6530639559754e-16
        -3.5529624218585e-17
        2.9988037745779e-16
        -2.1395577357629e-16
        2.3786003163844e-16
        -3.0056336696977e-16
        1.3263251476991e-16
        7.297388070813e-17
        -5.3283378045439e-16
        2.8311858280377e-16
        2.8464246410476e-16
        -2.3399737983021e-15
        4.0507550667877e-15
        -7.7565354548084e-15
        9.6644140515781e-15
        -1.6290990465855e-14
        9.289696966383e-15
    );
}



// ************************************************************************* //
